/*--------------------------------*- C++ -*----------------------------------*\ 
| =========                 |                                                 | 
| \\      /  F ield         | OpenFOAM: The Open Source CFD Toolbox           | 
|  \\    /   O peration     | Version:  v2006                                 | 
|   \\  /    A nd           | Website:  www.openfoam.com                      | 
|    \\/     M anipulation  |                                                 | 
\*---------------------------------------------------------------------------*/ 

FoamFile
{
    version     2.0;
    format      ascii;
    class       dictionary;
    location    "system";
    object      controlDict;
}
// * * * * * * * * * * * * * * * * * * * * * * * * * * * * * * * * * * * * * //

#include "includeDict";

application         pimpleFoam;

startFrom           latestTime;

stopAt              endTime;

endTime             0.4;

deltaT              0.00001;

//writeControl        adjustable;
//writeInterval       0.00001;

writeControl        timeStep;
writeInterval       1;

purgeWrite          0;

writeFormat         ascii;

writePrecision      6;

writeCompression    off;

timeFormat          general;

timePrecision       1;

runTimeModifiable   yes;

adjustTimeStep      yes;

maxCo               0.2;

//maxDeltaT 0.001;  // Cap on time step size


functions
{
    #include "forceCoeffs";
    //#include "yPlus";
    //#include "wallShearStress";
    #include "residualsMonitorDict";
    //#include "surfaces";
}
