/*--------------------------------*- C++ -*----------------------------------*\
| =========                 |                                                 |
| \\      /  F ield         | OpenFOAM: The Open Source CFD Toolbox           |
|  \\    /   O peration     | Version:  2006                                  |
|   \\  /    A nd           | Website:  www.openfoam.com                      |
|    \\/     M anipulation  |                                                 |
\*---------------------------------------------------------------------------*/
FoamFile
{
    version     2.0;
    format      ascii;
    class       polyBoundaryMesh;
    location    "1/polyMesh";
    object      boundary;
}
// * * * * * * * * * * * * * * * * * * * * * * * * * * * * * * * * * * * * * //

3
(
    airfoil
    {
        type            wall;
        inGroups        1(wall);
        nFaces          570;
        startFace       228570;
    }
    farfield
    {
        type            patch;
        nFaces          570;
        startFace       229140;
    }
    side
    {
        type            empty;
        inGroups        1(empty);
        nFaces          229140;
        startFace       229710;
    }
)

// ************************************************************************* //
